CRYSTAL
PRIMVEC
 13.15696000000000 0.00000000000000 0.00000000000000
 0.00000000000000 3.90723900000000 0.00000000000000
 0.00000000000000 0.00000000000000 5.71237720000000
PRIMCOORD
 32 1
  1     4.18250000000000     3.77270000000000     5.06060000000000
  1     8.97440000000000     0.13460000000000     2.20440000000000
  1    10.76100000000000     2.08820000000000     5.06060000000000
  1     2.39590000000000     1.81900000000000     2.20440000000000
  1     4.92380000000000     1.87310000000000    -2.83750000000000
  1     8.23320000000000    -1.87310000000000     5.73110000000000
  1    11.50220000000000     3.98780000000000     2.87490000000000
  1     6.18400000000000     1.77000000000000     1.60990000000000
  1     6.97300000000000    -1.77000000000000     4.46610000000000
  1    12.76250000000000     7.99810000000000     1.60990000000000
  1     0.39450000000000    -0.18370000000000     4.46610000000000
  1     5.92110000000000     3.30640000000000     2.42950000000000
  1     7.23590000000000     0.60090000000000     5.28560000000000
  1    12.49960000000000     2.55450000000000     2.42950000000000
  1     0.65740000000000     5.26000000000000    -0.42670000000000
  1     1.65470000000000    -0.08050000000000     5.73110000000000
  6     4.40660000000000     2.78140000000000     1.00690000000000
  6     8.75040000000000     1.12590000000000     3.86310000000000
  6    10.98500000000000     3.07950000000000     1.00690000000000
  6     2.17190000000000     0.82770000000000     3.86310000000000
  6     5.41200000000000     2.40910000000000     2.05730000000000
  6     7.74500000000000     1.49810000000000     4.91350000000000
  6    11.99050000000000     3.45170000000000     2.05730000000000
  6     1.16650000000000     0.45550000000000     4.91350000000000
  8     4.90660000000000     3.50390000000000     0.01870000000000
  8     8.25040000000000     0.40330000000000     2.87490000000000
  8    11.48510000000000     2.35690000000000     0.01870000000000
  8     1.67190000000000     1.55030000000000     2.87490000000000
  8     3.21240000000000     2.45100000000000     1.02600000000000
  8     9.94450000000000     1.45620000000000     3.88220000000000
  8     9.79090000000000     3.40990000000000     1.02600000000000
  8     3.36610000000000     0.49740000000000     3.88220000000000
