CRYSTAL
PRIMVEC
 6.45289290000000 0.00000000000000 0.00000000000000
 0.00000000000000 6.45289290000000 0.00000000000000
 0.00000000000000 0.00000000000000 8.96061820000000
PRIMCOORD
 52 1
  1     0.87110000000000     0.14910000000000     2.43560000000000
  1     0.14910000000000     5.58180000000000     6.52500000000000
  1     5.58180000000000     6.30380000000000     2.43560000000000
  1     6.30380000000000     0.87110000000000     6.52500000000000
  1     2.35530000000000     3.37560000000000     2.04470000000000
  1     3.07730000000000     2.35530000000000     6.91590000000000
  1     4.09760000000000     3.07730000000000     2.04470000000000
  1     3.37560000000000     4.09760000000000     6.91590000000000
  1     6.07950000000000     2.12940000000000     1.52820000000000
  1     2.12940000000000     0.37340000000000     7.43240000000000
  1     0.37340000000000     4.32350000000000     1.52820000000000
  1     4.32350000000000     6.07950000000000     7.43240000000000
  1     3.59990000000000     5.35590000000000     2.95210000000000
  1     1.09700000000000     3.59990000000000     6.00850000000000
  1     2.85300000000000     1.09700000000000     2.95210000000000
  1     5.35590000000000     2.85300000000000     6.00850000000000
  1     1.90520000000000     1.66840000000000     0.60200000000000
  1     1.66840000000000     4.54770000000000     8.35860000000000
  1     4.54770000000000     4.78450000000000     0.60200000000000
  1     4.78450000000000     1.90520000000000     8.35860000000000
  1     1.32120000000000     4.89480000000000     3.87830000000000
  1     1.55810000000000     1.32120000000000     5.08230000000000
  1     5.13170000000000     1.55810000000000     3.87830000000000
  1     4.89480000000000     5.13170000000000     5.08230000000000
  1     0.85880000000000     2.35240000000000     8.31340000000000
  1     2.35240000000000     5.59410000000000     0.64730000000000
  1     5.59410000000000     4.10040000000000     8.31340000000000
  1     4.10040000000000     0.85880000000000     0.64730000000000
  1     2.36770000000000     5.57890000000000     5.12760000000000
  1     0.87400000000000     2.36770000000000     3.83300000000000
  1     4.08520000000000     0.87400000000000     5.12760000000000
  1     5.57890000000000     4.08520000000000     3.83300000000000
  6     0.00000000000000     0.00000000000000     1.77910000000000
  6     0.00000000000000     0.00000000000000     7.18150000000000
  6     3.22640000000000     3.22640000000000     2.70120000000000
  6     3.22640000000000     3.22640000000000     6.25950000000000
  6     6.23360000000000     1.24250000000000     0.89120000000000
  6     1.24250000000000     0.21930000000000     8.06940000000000
  6     0.21930000000000     5.21030000000000     0.89120000000000
  6     5.21030000000000     6.23360000000000     8.06940000000000
  6     3.44570000000000     4.46900000000000     3.58910000000000
  6     1.98390000000000     3.44570000000000     5.37160000000000
  6     3.00720000000000     1.98390000000000     3.58910000000000
  6     4.46900000000000     3.00720000000000    14.33220000000000
  6     1.01360000000000     1.46570000000000    -0.01080000000000
  6     1.46570000000000     5.43930000000000     8.97140000000000
  6     5.43930000000000     4.98720000000000    -0.01080000000000
  6     4.98720000000000     1.01360000000000     0.01080000000000
  6     2.21280000000000     4.69220000000000     4.49110000000000
  6     1.76070000000000     2.21280000000000     4.46950000000000
  6     4.24010000000000     1.76070000000000     4.49110000000000
  6     4.69220000000000     4.24010000000000     4.46950000000000
