CRYSTAL
PRIMVEC
 4.96216370000000 0.00000000000000 0.00000000000000
 0.00000000000000 4.96216370000000 0.00000000000000
 0.00000000000000 0.00000000000000 4.96216370000000
PRIMCOORD
 16 1
  1     1.85960000000000     1.35580000000000     0.52320000000000
  1     1.35580000000000     0.52320000000000     1.85960000000000
  1     0.52320000000000     1.85960000000000     1.35580000000000
  1     4.34070000000000     1.12530000000000     4.43900000000000
  1     3.83680000000000     1.95790000000000     3.10250000000000
  1     3.00430000000000     0.62140000000000     3.60640000000000
  1     3.60640000000000     3.00430000000000     0.62140000000000
  1     4.43900000000000     4.34070000000000     1.12530000000000
  1     1.95790000000000     3.10250000000000     3.83680000000000
  1     0.62140000000000     3.60640000000000     3.00430000000000
  1     1.12530000000000     4.43900000000000     4.34070000000000
  1     3.10250000000000     3.83680000000000     1.95790000000000
  7     1.03420000000000     1.03420000000000     1.03420000000000
  7     3.51520000000000     1.44690000000000     3.92800000000000
  7     3.92800000000000     3.51520000000000     1.44690000000000
  7     1.44690000000000     3.92800000000000     3.51520000000000
