CRYSTAL
PRIMVEC
 8.39853890000000 0.00000000000000 -0.00649320000000
 0.00000000000000 5.94325530000000 0.00000000000000
 -6.40530220000000 0.00000000000000 9.09042030000000
PRIMCOORD
 48 1
  1    -1.93800000000000     0.50820000000000     4.34020000000000
  1    -0.26800000000000     3.47980000000000     4.74700000000000
  1     3.93120000000000     5.43510000000000     4.74370000000000
  1     2.26130000000000     2.46340000000000     4.33700000000000
  1    -0.47120000000000     1.90620000000000     2.92180000000000
  1    -1.73480000000000     4.87780000000000     6.16540000000000
  1     2.46450000000000     4.03710000000000     6.16210000000000
  1     3.72800000000000     1.06550000000000     2.91850000000000
  1     0.75260000000000     2.25100000000000     0.79470000000000
  1    -2.95860000000000     5.22260000000000     8.29250000000000
  1     1.24060000000000     3.69230000000000     8.28920000000000
  1     4.95190000000000     0.72060000000000     0.79150000000000
  1     6.40070000000000     3.36840000000000     1.30850000000000
  1    -0.20820000000000     0.39680000000000     7.77220000000000
  1    -4.40740000000000     2.57480000000000     7.77540000000000
  1     2.20140000000000     5.54640000000000     1.31180000000000
  1     5.67200000000000     4.20580000000000     3.51280000000000
  1     0.52050000000000     1.23420000000000     5.56780000000000
  1    -3.67880000000000     1.73740000000000     5.57110000000000
  1     1.47280000000000     4.70900000000000     3.51610000000000
  6    -1.63010000000000     0.14910000000000     3.35800000000000
  6    -0.57600000000000     3.12070000000000     5.72910000000000
  6     3.62330000000000     5.79420000000000     5.72590000000000
  6     2.56920000000000     2.82250000000000     3.35480000000000
  6    -0.81100000000000     0.93050000000000     2.57350000000000
  6    -1.39500000000000     3.90210000000000     6.51370000000000
  6     2.80420000000000     5.01280000000000     6.51050000000000
  6     3.38830000000000     2.04110000000000     2.57020000000000
  6    -0.39690000000000     0.48870000000000     1.27810000000000
  6    -1.80920000000000     3.46040000000000     7.80910000000000
  6     2.39010000000000     5.45450000000000     7.80590000000000
  6     3.80240000000000     2.48290000000000     1.27480000000000
  6     0.42080000000000     1.27160000000000     0.44730000000000
  6    -2.62680000000000     4.24330000000000     8.63990000000000
  6     1.57250000000000     4.67160000000000     8.63660000000000
  6     4.62000000000000     1.70000000000000     0.44410000000000
  6     7.56900000000000     5.12830000000000     0.81080000000000
  6    -1.37650000000000     2.15670000000000     8.26990000000000
  6    -5.57580000000000     0.81490000000000     8.27310000000000
  6     3.36980000000000     3.78650000000000     0.81400000000000
  6     6.72740000000000     4.34640000000000     1.65840000000000
  6    -0.53490000000000     1.37480000000000     7.42220000000000
  6    -4.73410000000000     1.59680000000000     7.42550000000000
  6     2.52810000000000     4.56840000000000     1.66170000000000
  6     6.32630000000000     4.81670000000000     2.88880000000000
  6    -0.13370000000000     1.84510000000000     6.19190000000000
  6    -4.33300000000000     1.12660000000000     6.19510000000000
  6     2.12700000000000     4.09820000000000     2.89200000000000
