CRYSTAL
PRIMVEC
 7.36844010000000 0.00000000000000 0.00000000000000
 0.00000000000000 9.22518630000000 0.00000000000000
 0.00000000000000 0.00000000000000 6.83900360000000
PRIMCOORD
 48 1
  1     6.59130000000000     2.36340000000000     6.69360000000000
  1     4.46140000000000     6.97600000000000     6.69360000000000
  1     6.59130000000000     2.24920000000000     3.27410000000000
  1     4.46140000000000     6.86180000000000     3.27410000000000
  1     0.77720000000000     6.86180000000000     0.14540000000000
  1     2.90710000000000     2.24920000000000     0.14540000000000
  1     0.77720000000000     6.97600000000000     3.56490000000000
  1     2.90710000000000     2.36340000000000     3.56490000000000
  1     5.53290000000000     0.79150000000000     1.48840000000000
  1     5.51980000000000     5.40410000000000     1.48840000000000
  1     5.53290000000000     3.82100000000000     4.90790000000000
  1     5.51980000000000     8.43360000000000     4.90790000000000
  1     1.83560000000000     8.43360000000000     5.35060000000000
  1     1.84860000000000     3.82100000000000     5.35060000000000
  1     1.83560000000000     5.40410000000000     1.93110000000000
  1     1.84860000000000     0.79150000000000     1.93110000000000
  1     1.03360000000000     1.54790000000000     5.18880000000000
  1     2.65060000000000     6.16050000000000     5.18880000000000
  1     1.03360000000000     3.06470000000000     1.76930000000000
  1     2.65060000000000     7.67730000000000     1.76930000000000
  1     6.33490000000000     7.67730000000000     1.65020000000000
  1     4.71780000000000     3.06470000000000     1.65020000000000
  1     6.33490000000000     6.16050000000000     5.06970000000000
  1     4.71780000000000     1.54790000000000     5.06970000000000
  6     6.92850000000000     1.32830000000000     6.75710000000000
  6     4.12420000000000     5.94090000000000     6.75710000000000
  6     6.92850000000000     3.28430000000000     3.33760000000000
  6     4.12420000000000     7.89690000000000     3.33760000000000
  6     0.43990000000000     7.89690000000000     0.08190000000000
  6     3.24430000000000     3.28430000000000     0.08190000000000
  6     0.43990000000000     5.94090000000000     3.50140000000000
  6     3.24430000000000     1.32830000000000     3.50140000000000
  6     6.33990000000000     0.45170000000000     0.83910000000000
  6     4.71280000000000     5.06420000000000     0.83910000000000
  6     6.33990000000000     4.16090000000000     4.25860000000000
  6     4.71280000000000     8.77350000000000     4.25860000000000
  6     1.02850000000000     8.77350000000000     5.99990000000000
  6     2.65570000000000     4.16090000000000     5.99990000000000
  6     1.02850000000000     5.06420000000000     2.58040000000000
  6     2.65570000000000     0.45170000000000     2.58040000000000
  6     0.58420000000000     0.87410000000000     5.91650000000000
  6     3.10000000000000     5.48670000000000     5.91650000000000
  6     0.58420000000000     3.73850000000000     2.49700000000000
  6     3.10000000000000     8.35110000000000     2.49700000000000
  6     6.78420000000000     8.35110000000000     0.92250000000000
  6     4.26840000000000     3.73850000000000     0.92250000000000
  6     6.78420000000000     5.48670000000000     4.34200000000000
  6     4.26840000000000     0.87410000000000     4.34200000000000
