CRYSTAL
PRIMVEC
 5.79034530000000 0.00000000000000 0.00000000000000
 0.00000000000000 5.79034530000000 0.00000000000000
 0.00000000000000 0.00000000000000 5.79034530000000
PRIMCOORD
 12 1
  6     0.00000000000000     0.00000000000000     0.00000000000000
  6     2.89520000000000     0.00000000000000     2.89520000000000
  6     2.89520000000000     2.89520000000000     0.00000000000000
  6     0.00000000000000     2.89520000000000     2.89520000000000
  8     0.67450000000000     0.67450000000000     0.67450000000000
  8     3.56960000000000     0.67450000000000     2.22070000000000
  8     3.56960000000000     2.22070000000000     5.11590000000000
  8     5.11590000000000     3.56960000000000     2.22070000000000
  8     5.11590000000000     5.11590000000000     5.11590000000000
  8     2.22070000000000     5.11590000000000     3.56960000000000
  8     2.22070000000000     3.56960000000000     0.67450000000000
  8     0.67450000000000     2.22070000000000     3.56960000000000
