CRYSTAL
PRIMVEC
 6.87866590000000 0.00000000000000 0.00000000000000
 0.00000000000000 6.89829060000000 0.00000000000000
 0.00000000000000 0.00000000000000 8.83823130000000
PRIMCOORD
 40 1
  1     1.42930000000000     0.73090000000000     0.16700000000000
  1     2.01000000000000     4.18010000000000     0.16700000000000
  1     1.42930000000000     2.71820000000000     4.58610000000000
  1     2.01000000000000     6.16740000000000     4.58610000000000
  1     5.44940000000000     6.16740000000000     8.67120000000000
  1     4.86860000000000     2.71820000000000     8.67120000000000
  1     5.44940000000000     4.18010000000000     4.25210000000000
  1     4.86860000000000     0.73090000000000     4.25210000000000
  1     0.25810000000000     1.86000000000000     0.93660000000000
  1     3.18130000000000     5.30920000000000     0.93660000000000
  1     0.25810000000000     1.58910000000000     5.35570000000000
  1     3.18130000000000     5.03820000000000     5.35570000000000
  1     6.62060000000000     5.03820000000000     7.90160000000000
  1     3.69740000000000     1.58910000000000     7.90160000000000
  1     6.62060000000000     5.30920000000000     3.48250000000000
  1     3.69740000000000     1.86000000000000     3.48250000000000
  6     0.95580000000000     0.39440000000000     2.11010000000000
  6     2.48350000000000     3.84350000000000     2.11010000000000
  6     0.95580000000000     3.05480000000000     6.52930000000000
  6     2.48350000000000     6.50390000000000     6.52930000000000
  6     5.92290000000000     6.50390000000000     6.72810000000000
  6     4.39510000000000     3.05480000000000     6.72810000000000
  6     5.92290000000000     3.84350000000000     2.30900000000000
  6     4.39510000000000     0.39440000000000     2.30900000000000
  7     0.90720000000000     1.06050000000000     0.99630000000000
  7     2.53210000000000     4.50970000000000     0.99630000000000
  7     0.90720000000000     2.38860000000000     5.41540000000000
  7     2.53210000000000     5.83770000000000     5.41540000000000
  7     5.97150000000000     5.83770000000000     7.84200000000000
  7     4.34650000000000     2.38860000000000     7.84200000000000
  7     5.97150000000000     4.50970000000000     3.42290000000000
  7     4.34650000000000     7.95880000000000     3.42290000000000
  7     0.99680000000000    -0.19710000000000     3.12520000000000
  7     2.44260000000000     3.25200000000000     3.12520000000000
  7     0.99680000000000    -3.25200000000000     7.54430000000000
  7     2.44260000000000     0.19710000000000     7.54430000000000
  7     5.88190000000000     7.09540000000000     5.71310000000000
  7     4.43610000000000     3.64630000000000     5.71310000000000
  7     5.88190000000000    10.15030000000000     1.29400000000000
  7     4.43610000000000    -0.19710000000000     1.29400000000000
