CRYSTAL
PRIMVEC
 12.95956080000000 0.00000000000000 0.00000000000000
 0.00000000000000 9.46651690000000 0.00000000000000
 0.00000000000000 0.00000000000000 3.76306370000000
PRIMCOORD
 52 1
  1    12.82970000000000     8.77670000000000     1.25850000000000
  1     6.34990000000000     5.42310000000000     2.50450000000000
  1     0.12990000000000     4.04350000000000     0.62300000000000
  1     6.60970000000000     0.68980000000000     3.14000000000000
  1     2.00390000000000     4.50720000000000     1.93160000000000
  1     8.48370000000000     0.22600000000000     1.83150000000000
  1    10.95560000000000     9.24050000000000     3.71300000000000
  1     4.47580000000000     4.95930000000000     0.05000000000000
  1     3.35220000000000     3.54660000000000     2.56790000000000
  1     9.83200000000000     1.18670000000000     1.19520000000000
  1     9.60730000000000     8.27980000000000     3.07670000000000
  1     3.12760000000000     5.92000000000000     0.68640000000000
  1     3.17430000000000     1.18930000000000     3.02850000000000
  1     9.65410000000000     3.54400000000000     0.73460000000000
  1     9.78530000000000     5.92250000000000     2.61610000000000
  1     3.30550000000000     8.27720000000000     1.14690000000000
  1     1.76140000000000     8.57500000000000     2.57050000000000
  1     8.24120000000000     5.62470000000000     1.19250000000000
  1    11.19820000000000     3.84180000000000     3.07410000000000
  1     4.71840000000000     0.89150000000000     0.68900000000000
  6    12.73610000000000     1.42540000000000     1.19880000000000
  6     6.25630000000000     3.30780000000000     2.56430000000000
  6     0.22350000000000     6.15870000000000     0.68280000000000
  6     6.70330000000000     8.04110000000000     3.08030000000000
  6     1.69590000000000     2.47810000000000     2.04650000000000
  6     8.17570000000000     2.25510000000000     1.71650000000000
  6    11.26370000000000     7.21140000000000     3.59810000000000
  6     4.78390000000000     6.98840000000000     0.16500000000000
  6     2.22530000000000     1.23020000000000     2.50800000000000
  6     8.70510000000000     3.50300000000000     1.25510000000000
  6    10.73420000000000     5.96350000000000     3.13660000000000
  6     4.25440000000000     8.23630000000000     0.62650000000000
  6     1.47460000000000     0.11670000000000     2.26960000000000
  6     7.95440000000000     4.61660000000000     1.49340000000000
  6    11.48500000000000     4.84990000000000     3.37500000000000
  6     5.00520000000000     9.34990000000000     0.38810000000000
  7     0.28970000000000     0.20730000000000     1.62420000000000
  7     6.76950000000000     4.52600000000000     2.13880000000000
  7    12.66980000000000     4.94060000000000     0.25730000000000
  7     6.19010000000000     9.25920000000000     3.50580000000000
  7     0.50000000000000     2.55190000000000     1.43020000000000
  7     6.97980000000000     2.18130000000000     2.33290000000000
  7    12.45950000000000     7.28520000000000     0.45140000000000
  7     5.97970000000000     6.91460000000000     3.31170000000000
  7     2.39080000000000     3.60630000000000     2.23140000000000
  7     8.87050000000000     1.12700000000000     1.53170000000000
  7    10.56880000000000     8.33950000000000     3.41320000000000
  7     4.08900000000000     5.86020000000000     0.34980000000000
  8    11.63220000000000     1.44780000000000     0.59270000000000
  8     5.15240000000000     3.28550000000000     3.17040000000000
  8     1.32740000000000     6.18100000000000     1.28880000000000
  8     7.80710000000000     8.01880000000000     2.47420000000000
