CRYSTAL
PRIMVEC
 5.00862860000000 0.01850480000000 -0.07021520000000
 1.63024370000000 6.75972130000000 0.06453210000000
 -1.98719930000000 -0.98187780000000 7.07960370000000
PRIMCOORD
 26 1
  1     4.08360000000000     5.70040000000000     2.85650000000000
  1     0.56800000000000     0.09590000000000     4.21740000000000
  1     0.47060000000000     4.77430000000000     3.55100000000000
  1     4.18100000000000     1.02210000000000     3.52290000000000
  1     5.57210000000000     5.58740000000000     1.89260000000000
  1    -0.92050000000000     0.20900000000000     5.18130000000000
  1     3.66340000000000     3.25540000000000     2.58580000000000
  1     0.98830000000000     2.54100000000000     4.48820000000000
  1     3.83480000000000     4.01110000000000     0.97950000000000
  1     0.81690000000000     1.78530000000000     6.09440000000000
  1     2.22330000000000     1.31480000000000     1.10840000000000
  1     2.42840000000000     4.48160000000000     5.96550000000000
  1     1.17760000000000     0.09250000000000     0.40600000000000
  1     3.47400000000000     5.70380000000000     6.66790000000000
  6     4.91180000000000     5.03680000000000     2.57380000000000
  6    -0.26010000000000     0.75960000000000     4.50010000000000
  6     4.35830000000000     3.78720000000000     1.91840000000000
  6     0.29340000000000     2.00920000000000     5.15550000000000
  6     0.20550000000000     1.72910000000000     1.10160000000000
  6     4.44620000000000     4.06730000000000     5.97230000000000
  7     1.28560000000000     0.94790000000000     0.95700000000000
  7     3.36610000000000     4.84840000000000     6.11690000000000
  8     0.48580000000000     2.90100000000000     1.70960000000000
  8     4.16590000000000     2.89530000000000     5.36440000000000
  8     4.06630000000000     1.42690000000000     0.67020000000000
  8     0.58540000000000     4.36940000000000     6.40370000000000
