CRYSTAL
PRIMVEC
 3.58082340000000 0.00000000000000 0.01522310000000
 0.00000000000000 9.00095740000000 0.00000000000000
 -1.23731120000000 0.00000000000000 6.84132440000000
PRIMCOORD
 24 1
  1     0.53410000000000     2.34970000000000     0.98600000000000
  1     0.63760000000000     6.85020000000000     2.44230000000000
  1     1.80940000000000     6.65120000000000     5.87060000000000
  1     0.46860000000000     2.15070000000000    11.25560000000000
  1     1.40020000000000     1.20290000000000    -0.09080000000000
  1     1.00880000000000     5.70340000000000    -3.32220000000000
  1     0.94330000000000     7.79810000000000     6.94740000000000
  1     2.57200000000000     3.29760000000000     3.33750000000000
  1     0.30740000000000     0.81690000000000     2.65920000000000
  1     0.86430000000000     5.31740000000000     0.76910000000000
  1     2.03610000000000     8.18410000000000     4.19740000000000
  1     1.47920000000000     3.68360000000000     6.08750000000000
  6     0.85020000000000     0.49770000000000     1.74880000000000
  6     0.32160000000000     4.99820000000000     1.67950000000000
  6     1.49330000000000     8.50330000000000     5.10780000000000
  6     2.02190000000000     4.00280000000000     5.17700000000000
  7     0.93260000000000     1.42100000000000     0.80090000000000
  7     0.23920000000000     5.92150000000000     2.62740000000000
  7     1.41090000000000     7.58000000000000     6.05560000000000
  7     2.10430000000000     3.07950000000000     4.22920000000000
  8     1.34490000000000     8.34820000000000     1.68160000000000
  8    -0.17320000000000     3.84770000000000     1.74670000000000
  8     0.99860000000000     0.65280000000000     5.17500000000000
  8     2.51670000000000     5.15320000000000     5.10990000000000
