CRYSTAL
PRIMVEC
 -3.47632510000000 3.47632510000000 3.47632510000000
 3.47632510000000 -3.47632510000000 3.47632510000000
 3.47632510000000 3.47632510000000 -3.47632510000000
PRIMCOORD
 22 1
  1     2.31870000000000     0.63810000000000    -0.63810000000000
  1    -0.63810000000000     2.31870000000000     0.63810000000000
  1     4.63390000000000     0.63810000000000     0.63810000000000
  1    -0.63810000000000     0.63810000000000     2.31870000000000
  1     0.63810000000000     2.31870000000000    -0.63810000000000
  1     0.63810000000000    -0.63810000000000     2.31870000000000
  1     1.15760000000000     2.83820000000000     2.83820000000000
  1     2.83820000000000     1.15760000000000     2.83820000000000
  1     0.63810000000000     4.63390000000000     0.63810000000000
  1     2.31870000000000    -0.63810000000000     0.63810000000000
  1     0.63810000000000     0.63810000000000     4.63390000000000
  1     2.83820000000000     2.83820000000000     1.15760000000000
  6     1.68980000000000     0.00000000000000     0.00000000000000
  6     0.00000000000000     1.68980000000000     0.00000000000000
  6     5.26290000000000     0.00000000000000     0.00000000000000
  6     0.00000000000000     0.00000000000000     1.68980000000000
  6     0.00000000000000     5.26290000000000     0.00000000000000
  6     0.00000000000000     0.00000000000000     5.26290000000000
  7     0.86750000000000     0.86750000000000     0.86750000000000
  7     2.60880000000000    -2.60880000000000     2.60880000000000
  7     2.60880000000000     2.60880000000000    -2.60880000000000
  7    -2.60880000000000     2.60880000000000     2.60880000000000
