CRYSTAL
PRIMVEC
 6.54796730000000 0.00000000000000 0.04171450000000
 0.00000000000000 6.32486270000000 0.00000000000000
 -1.11126140000000 0.00000000000000 6.66579390000000
PRIMCOORD
 32 1
  1     3.94820000000000     1.85190000000000     1.81250000000000
  1     1.48850000000000     5.01430000000000     4.89500000000000
  1     3.60640000000000     0.12730000000000     1.65930000000000
  1     1.83040000000000     3.28980000000000     5.04820000000000
  1     1.89540000000000     2.41330000000000     0.50640000000000
  1     3.54140000000000     5.57580000000000     6.20110000000000
  1     1.76520000000000     1.28090000000000     6.20640000000000
  1     3.67150000000000     4.44340000000000     0.50110000000000
  1     0.62180000000000     5.44730000000000     1.93670000000000
  1     4.81490000000000     2.28480000000000     4.77080000000000
  1     5.84640000000000     0.22560000000000     1.58900000000000
  1    -0.40970000000000     3.38800000000000     5.11850000000000
  1     0.51150000000000     2.12050000000000     2.64920000000000
  1     4.92520000000000     5.28290000000000     4.05830000000000
  1     0.37220000000000     0.78710000000000     3.82140000000000
  1     5.06450000000000     3.94950000000000     2.88610000000000
  6     2.33080000000000     1.11350000000000     3.01020000000000
  6     3.10590000000000     4.27590000000000     3.69730000000000
  6     3.13290000000000     1.12080000000000     1.72010000000000
  6     2.30380000000000     4.28330000000000     4.98740000000000
  6     2.29000000000000     1.38220000000000     0.46340000000000
  6     3.14670000000000     4.54460000000000     6.24410000000000
  6     1.06950000000000     0.48510000000000     0.38480000000000
  6     4.36720000000000     3.64750000000000     6.32270000000000
  6     0.38250000000000     0.17430000000000     1.70330000000000
  6     5.05420000000000     3.33680000000000     5.00420000000000
  6     0.82480000000000     1.08240000000000     2.86540000000000
  6     4.61190000000000     4.24480000000000     3.84210000000000
  8     2.89000000000000     1.12020000000000     4.10330000000000
  8     2.54670000000000     4.28270000000000     2.60420000000000
  8    -0.44840000000000     0.02320000000000     5.98970000000000
  8     5.88510000000000     3.18560000000000     0.71780000000000
