CRYSTAL
PRIMVEC
 7.47613810000000 0.00000000000000 0.03930930000000
 0.00000000000000 5.34970050000000 0.00000000000000
 -4.63266830000000 0.00000000000000 8.52387220000000
PRIMCOORD
 36 1
  1    -3.00820000000000     1.41290000000000     8.34830000000000
  1     3.53530000000000     4.08770000000000     4.47680000000000
  1     5.85170000000000     3.93680000000000     0.21480000000000
  1    -0.69190000000000     1.26200000000000     4.08640000000000
  1    -0.10530000000000     0.18330000000000     1.32260000000000
  1     5.26510000000000     2.85820000000000     2.97870000000000
  1     2.94880000000000     5.16640000000000     7.24060000000000
  1    -2.42160000000000     2.49150000000000     5.58450000000000
  1     0.92640000000000     3.73420000000000     3.32060000000000
  1     4.23340000000000     1.05930000000000     0.98060000000000
  1     1.91700000000000     1.61550000000000     5.24250000000000
  1    -1.38990000000000     4.29040000000000     7.58260000000000
  1     2.29970000000000     3.63960000000000     0.92350000000000
  1     2.86010000000000     0.96480000000000     3.37770000000000
  1     0.54380000000000     1.71010000000000     7.63960000000000
  1    -0.01660000000000     4.38490000000000     5.18550000000000
  6     0.35160000000000     1.14040000000000     1.54920000000000
  6     4.80820000000000     3.81520000000000     2.75200000000000
  6     2.49190000000000     4.20930000000000     7.01400000000000
  6    -1.96480000000000     1.53450000000000     5.81120000000000
  6     0.90440000000000     2.97130000000000     2.55160000000000
  6     4.25540000000000     0.29640000000000     1.74960000000000
  6     1.93910000000000     2.37840000000000     6.01160000000000
  6    -1.41190000000000     5.05330000000000     6.81350000000000
  6     1.59630000000000     2.94060000000000     1.35830000000000
  6     3.56350000000000     0.26580000000000     2.94290000000000
  6     1.24710000000000     2.40910000000000     7.20490000000000
  6    -0.72000000000000     5.08390000000000     5.62020000000000
  7     1.23020000000000     1.77270000000000     0.73830000000000
  7     3.92960000000000     4.44760000000000     3.56290000000000
  7     1.61330000000000     3.57700000000000     7.82490000000000
  7    -1.08620000000000     0.90210000000000     5.00030000000000
  7     0.12710000000000     1.83910000000000     2.66190000000000
  7     5.03270000000000     4.51390000000000     1.63930000000000
  7     2.71630000000000     3.51060000000000     5.90120000000000
  7    -2.18920000000000     0.83580000000000     6.92390000000000
