CRYSTAL
PRIMVEC
 8.10879010000000 0.00000000000000 0.04374060000000
 0.00000000000000 5.88379280000000 0.00000000000000
 -4.88781000000000 0.00000000000000 7.14852890000000
PRIMCOORD
 36 1
  1    -1.18840000000000     0.39700000000000     3.38130000000000
  1     0.35500000000000     3.33890000000000     3.78910000000000
  1     4.40940000000000     5.48680000000000     3.81100000000000
  1     2.86600000000000     2.54490000000000     3.40310000000000
  1     0.19030000000000     1.92600000000000     2.00330000000000
  1    -1.02370000000000     4.86790000000000     5.16710000000000
  1     3.03070000000000     3.95780000000000     5.18890000000000
  1     4.24470000000000     1.01590000000000     2.02520000000000
  1    -3.55990000000000     2.44780000000000     7.01430000000000
  1     2.72650000000000     5.38970000000000     0.15610000000000
  1     6.78090000000000     3.43600000000000     0.17790000000000
  1     0.49450000000000     0.49410000000000     7.03620000000000
  1     6.14920000000000     4.08170000000000     2.48140000000000
  1     1.12620000000000     1.13980000000000     4.73280000000000
  1    -2.92820000000000     1.80210000000000     4.71090000000000
  1     2.09480000000000     4.74400000000000     2.45950000000000
  6    -0.91360000000000     0.11220000000000     2.36550000000000
  6     0.08020000000000     3.05410000000000     4.80490000000000
  6     4.13460000000000     5.77160000000000     4.82670000000000
  6     3.14080000000000     2.82970000000000     2.38740000000000
  6    -0.14390000000000     0.96970000000000     1.60150000000000
  6    -0.68950000000000     3.91160000000000     5.56890000000000
  6     3.36490000000000     4.91410000000000     5.59080000000000
  6     3.91050000000000     1.97220000000000     1.62340000000000
  6     0.21870000000000     0.62950000000000     0.26910000000000
  6    -1.05210000000000     3.57140000000000     6.90130000000000
  6     3.00230000000000     5.25430000000000     6.92320000000000
  6     4.27300000000000     2.31240000000000     0.29100000000000
  6    -3.88770000000000     1.49410000000000     6.60340000000000
  6     3.05430000000000     4.43600000000000     0.56700000000000
  6     7.10870000000000     4.38970000000000     0.58880000000000
  6     0.16670000000000     1.44780000000000     6.62530000000000
  6     6.76150000000000     4.75310000000000     1.87710000000000
  6     0.51390000000000     1.81120000000000     5.33700000000000
  6    -3.54050000000000     1.13070000000000     5.31520000000000
  6     2.70710000000000     4.07260000000000     1.85520000000000
