CRYSTAL
PRIMVEC
 5.27053000000000 0.00000000000000 0.04349330000000
 0.00000000000000 6.16441720000000 0.00000000000000
 -2.30212550000000 0.00000000000000 4.85253540000000
PRIMCOORD
 16 1
  1     2.31350000000000     5.59080000000000     0.97410000000000
  1     1.80600000000000     2.50860000000000     1.49570000000000
  1     0.65490000000000     0.57360000000000     3.92190000000000
  1    -1.13970000000000     3.65580000000000     8.25290000000000
  6     0.77280000000000     0.01420000000000    -0.00170000000000
  6     5.64880000000000     3.09640000000000    -2.38100000000000
  6     2.19560000000000     6.15020000000000     4.89780000000000
  6    -0.37830000000000     3.06800000000000     2.42450000000000
  8    -0.90910000000000     0.59610000000000     3.96030000000000
  8     2.72650000000000     3.67830000000000     3.36200000000000
  8     3.87750000000000     5.56830000000000     0.93570000000000
  8     0.24190000000000     2.48610000000000     1.53400000000000
  8     1.28910000000000     5.55030000000000     1.01750000000000
  8     2.83040000000000     2.46810000000000     1.45220000000000
  8     1.67930000000000     0.61410000000000     3.87850000000000
  8     0.13800000000000     3.69630000000000     3.44380000000000
