CRYSTAL
PRIMVEC
 6.66394810000000 0.00000000000000 0.00000000000000
 0.00000000000000 7.54343250000000 0.00000000000000
 0.00000000000000 0.00000000000000 6.24451590000000
PRIMCOORD
 32 1
  1     0.63470000000000     2.31380000000000     5.27930000000000
  1     2.69730000000000     2.31380000000000     2.15710000000000
  1     3.96660000000000     1.45790000000000     5.27930000000000
  1     6.02930000000000     1.45790000000000     2.15710000000000
  1     6.02930000000000     5.22960000000000     0.96520000000000
  1     3.96660000000000     5.22960000000000     4.08740000000000
  1     2.69730000000000     6.08550000000000     0.96520000000000
  1     0.63470000000000     6.08550000000000     4.08740000000000
  6     0.38140000000000     0.43450000000000     5.72560000000000
  6     2.95060000000000     0.43450000000000     2.60340000000000
  6     3.71330000000000     3.33720000000000     5.72560000000000
  6     6.28260000000000     3.33720000000000     2.60340000000000
  6     6.28260000000000     7.10890000000000     0.51890000000000
  6     3.71330000000000     7.10890000000000     3.64110000000000
  6     2.95060000000000     4.20630000000000     0.51890000000000
  6     0.38140000000000     4.20630000000000     3.64110000000000
  8     1.03400000000000     7.48940000000000     4.80900000000000
  8     2.29800000000000     7.48940000000000     1.68680000000000
  8     4.36600000000000     3.82570000000000     4.80900000000000
  8     5.62990000000000     3.82570000000000     1.68680000000000
  8     5.62990000000000     0.05400000000000     1.43550000000000
  8     4.36600000000000     0.05400000000000     4.55780000000000
  8     2.29800000000000     3.71770000000000     1.43550000000000
  8     1.03400000000000     3.71770000000000     4.55780000000000
  8     0.21900000000000     1.70500000000000     5.97270000000000
  8     3.11300000000000     1.70500000000000     2.85050000000000
  8     3.55100000000000     2.06670000000000     5.97270000000000
  8     6.44500000000000     2.06670000000000     2.85050000000000
  8     6.44500000000000     5.83850000000000     0.27180000000000
  8     3.55100000000000     5.83850000000000     3.39410000000000
  8     3.11300000000000     5.47670000000000     0.27180000000000
  8     0.21900000000000     5.47670000000000     3.39410000000000
