CRYSTAL
PRIMVEC
 9.29236890000000 0.00000000000000 0.00000000000000
 0.00000000000000 5.71655750000000 0.00000000000000
 0.00000000000000 0.00000000000000 3.68341940000000
PRIMCOORD
 20 1
  1     1.27270000000000     1.87650000000000     0.88140000000000
  1     8.01970000000000     1.87650000000000     0.88140000000000
  1     5.91880000000000     0.98180000000000     2.72310000000000
  1     3.37350000000000     0.98180000000000     2.72310000000000
  1     8.01970000000000     3.84010000000000     2.80200000000000
  1     1.27270000000000     3.84010000000000     2.80200000000000
  1     3.37350000000000     4.73480000000000     0.96030000000000
  1     5.91880000000000     4.73480000000000     0.96030000000000
  6     0.70040000000000     1.03570000000000     0.47790000000000
  6     8.59200000000000     1.03570000000000     0.47790000000000
  6     5.34660000000000     1.82260000000000     2.31960000000000
  6     3.94580000000000     1.82260000000000     2.31960000000000
  6     8.59200000000000     4.68090000000000     3.20550000000000
  6     0.70040000000000     4.68090000000000     3.20550000000000
  6     3.94580000000000     3.89400000000000     1.36380000000000
  6     5.34660000000000     3.89400000000000     1.36380000000000
  7     1.40510000000000     0.00000000000000     0.00000000000000
  7     7.88730000000000     0.00000000000000     0.00000000000000
  7     6.05130000000000     2.85830000000000     1.84170000000000
  7     3.24110000000000     2.85830000000000     1.84170000000000
