CRYSTAL
PRIMVEC
 7.98510230000000 0.00000000000000 0.00000000000000
 0.00000000000000 12.92825760000000 0.00000000000000
 0.00000000000000 0.00000000000000 6.90736300000000
PRIMCOORD
 72 1
  1     0.37810000000000     3.03550000000000     3.49960000000000
  1     4.37070000000000     9.89270000000000     3.40770000000000
  1     0.37810000000000     3.42860000000000     0.04600000000000
  1     4.37070000000000     9.49970000000000     6.86140000000000
  1     7.70110000000000     1.17230000000000     1.58540000000000
  1     3.70850000000000    11.75590000000000     5.32190000000000
  1     7.70110000000000     5.29180000000000     5.03910000000000
  1     3.70850000000000     7.63650000000000     1.86820000000000
  1     2.65640000000000     3.37410000000000     4.65620000000000
  1     6.64890000000000     9.55410000000000     2.25120000000000
  1     2.65640000000000     3.09000000000000     1.20250000000000
  1     6.64890000000000     9.83830000000000     5.70480000000000
  1     5.45160000000000    12.81340000000000     1.58120000000000
  1     1.45900000000000     0.11490000000000     5.32620000000000
  1     5.45160000000000     6.57900000000000     5.03490000000000
  1     1.45900000000000     6.34930000000000     1.87250000000000
  1     4.26350000000000     1.31040000000000     3.75220000000000
  1     0.27100000000000    11.61790000000000     3.15520000000000
  1     4.26350000000000     5.15380000000000     0.29850000000000
  1     0.27100000000000     7.77450000000000     6.60880000000000
  1    11.86500000000000     1.17670000000000     6.60640000000000
  1    -0.11260000000000    11.75160000000000     0.30100000000000
  1    11.86500000000000     5.28740000000000     3.15270000000000
  1    -0.11260000000000     7.64080000000000     3.75470000000000
  1     2.58620000000000    12.81170000000000     2.07780000000000
  1     6.57880000000000     0.11650000000000     4.82960000000000
  1     2.58620000000000     6.58070000000000     5.53150000000000
  1     6.57880000000000     6.34760000000000     1.37590000000000
  1     5.55220000000000     3.13730000000000     5.61990000000000
  1     1.55960000000000     9.79100000000000     1.28750000000000
  1     5.55220000000000     3.32680000000000     2.16620000000000
  1     1.55960000000000     9.60140000000000     4.74120000000000
  6     2.37890000000000     0.77820000000000     2.65720000000000
  6     6.37140000000000    12.15010000000000     4.25010000000000
  6     2.37890000000000     5.68590000000000     6.11090000000000
  6     6.37140000000000     7.24230000000000     0.79640000000000
  6     5.75340000000000     2.39130000000000     6.38060000000000
  6     1.76080000000000    10.53690000000000     0.52670000000000
  6     5.75340000000000     4.07280000000000     2.92700000000000
  6     1.76080000000000     8.85550000000000     3.98040000000000
  6     3.22760000000000     1.50990000000000     3.51320000000000
  6     7.22020000000000    11.41840000000000     3.39420000000000
  6     3.22760000000000     4.95430000000000     0.05950000000000
  6     7.22020000000000     7.97400000000000    13.75520000000000
  6     4.90320000000000     1.38750000000000    -6.92760000000000
  6     0.91060000000000    11.54070000000000     6.92760000000000
  6     4.90320000000000     5.07660000000000     3.43340000000000
  6     0.91060000000000     7.85170000000000     3.47400000000000
  6     2.43310000000000     2.55200000000000     3.98630000000000
  6     6.42570000000000    10.37630000000000     2.92110000000000
  6     2.43310000000000     3.91220000000000     0.53260000000000
  6     6.42570000000000     9.01610000000000     6.37470000000000
  6     5.67220000000000     0.72580000000000     0.93380000000000
  6     1.67960000000000    12.20250000000000     5.97360000000000
  6     5.67220000000000     5.73840000000000     4.38740000000000
  6     1.67960000000000     7.18990000000000     2.51990000000000
  7     1.21160000000000     2.39980000000000     3.42410000000000
  7     5.20410000000000    10.52840000000000     3.48330000000000
  7     1.21160000000000     4.06430000000000     6.87770000000000
  7     5.20410000000000     8.86390000000000     0.02960000000000
  7     6.88090000000000     1.33500000000000     0.95160000000000
  7     2.88840000000000    11.59320000000000     5.95570000000000
  7     6.88090000000000     5.12910000000000     4.40530000000000
  7     2.88840000000000     7.79920000000000     2.50210000000000
  7     1.15700000000000     1.33850000000000     2.61290000000000
  7     5.14960000000000    11.58980000000000     4.29440000000000
  7     1.15700000000000     5.12570000000000     6.06660000000000
  7     5.14960000000000     7.80260000000000     0.84080000000000
  7     6.95260000000000     2.34390000000000     0.07870000000000
  7     2.96000000000000    10.58430000000000     6.82870000000000
  7     6.95260000000000     4.12020000000000     3.53240000000000
  7     2.96000000000000     8.80810000000000     3.37500000000000
