CRYSTAL
PRIMVEC
 5.46588810000000 0.00000000000000 -0.00646420000000
 0.00000000000000 8.74023110000000 0.00000000000000
 -0.14614850000000 0.00000000000000 5.10569620000000
PRIMCOORD
 28 1
  1     5.18880000000000     7.27720000000000     4.60380000000000
  1     0.13090000000000     1.46300000000000     0.49550000000000
  1     5.26190000000000     5.83320000000000     2.05090000000000
  1     0.05780000000000     2.90710000000000     3.04830000000000
  1     0.99920000000000     7.80180000000000     0.72890000000000
  1     4.32060000000000     0.93850000000000     4.37030000000000
  1     0.92610000000000     5.30860000000000     3.28180000000000
  1     4.39360000000000     3.43170000000000     1.81750000000000
  1     2.91770000000000     7.73000000000000     3.02560000000000
  1     2.40200000000000     1.01020000000000     2.07370000000000
  1     2.99080000000000     5.38030000000000     0.47270000000000
  1     2.32900000000000     3.35990000000000     4.62650000000000
  6     0.30810000000000     8.14950000000000     4.94730000000000
  6     5.01170000000000     0.59070000000000     0.15190000000000
  6     0.38110000000000     4.96080000000000     2.39450000000000
  6     4.93860000000000     3.77940000000000     2.70480000000000
  6     1.32350000000000     8.44680000000000     3.87140000000000
  6     3.99630000000000     0.29350000000000     1.22780000000000
  6     1.39650000000000     4.66360000000000     1.31850000000000
  6     3.92320000000000     4.07670000000000     3.78070000000000
  8     1.27950000000000     0.70910000000000     3.14440000000000
  8     4.04030000000000     8.03110000000000     1.95480000000000
  8     1.35260000000000     3.66100000000000     0.59160000000000
  8     3.96720000000000     5.07920000000000     4.50770000000000
  8     2.25880000000000     7.51930000000000     3.77840000000000
  8     3.06090000000000     1.22090000000000     1.32080000000000
  8     2.33190000000000     5.59100000000000     1.22550000000000
  8     2.98780000000000     3.14920000000000     3.87370000000000
