CRYSTAL
PRIMVEC
 4.81174450000000 -8.33418590000000 0.00000000000000
 4.81174450000000 8.33418590000000 0.00000000000000
 0.00000000000000 0.00000000000000 6.93448310000000
PRIMCOORD
 54 1
  1     1.19850000000000     2.07590000000000     1.73360000000000
  1     3.61320000000000     6.25830000000000     5.20090000000000
  1     2.41480000000000     2.77810000000000     6.35660000000000
  1     3.61320000000000     4.85390000000000     2.88940000000000
  1     1.19850000000000    -2.07590000000000     1.73360000000000
  1     2.39700000000000     0.00000000000000     5.20090000000000
  1     3.61330000000000     0.70220000000000     2.88940000000000
  1     6.01020000000000     4.85390000000000     6.35660000000000
  1     2.41480000000000    -2.77810000000000     4.04510000000000
  1     3.61330000000000    -0.70220000000000     0.57790000000000
  1     6.01020000000000     0.70220000000000     6.35660000000000
  1     7.20870000000000     2.77810000000000     2.88940000000000
  1     3.61320000000000    -4.85390000000000     0.57790000000000
  1     6.01020000000000    -0.70220000000000     4.04510000000000
  1     3.61320000000000    -6.25830000000000     5.20090000000000
  1     7.22650000000000     0.00000000000000     1.73360000000000
  1     6.01020000000000    -4.85390000000000     4.04510000000000
  1     7.20870000000000    -2.77810000000000     0.57790000000000
  6     0.65160000000000     1.12870000000000     1.73360000000000
  6     4.16010000000000     7.20550000000000     5.20090000000000
  6     0.65160000000000    -1.12870000000000     1.73360000000000
  6     1.30330000000000     0.00000000000000     5.20090000000000
  6     3.50850000000000     2.77810000000000     6.35660000000000
  6     4.16010000000000     3.90670000000000     2.88940000000000
  6     4.16010000000000     1.64940000000000     2.88940000000000
  6     5.46340000000000     3.90670000000000     6.35660000000000
  6     5.46340000000000     1.64940000000000     6.35660000000000
  6     6.11500000000000     2.77810000000000     2.88940000000000
  6     3.50850000000000    -2.77810000000000     4.04510000000000
  6     4.16010000000000    -1.64940000000000     0.57790000000000
  6     4.16010000000000    -3.90670000000000     0.57790000000000
  6     5.46340000000000    -1.64940000000000     4.04510000000000
  6     5.46340000000000    -3.90670000000000     4.04510000000000
  6     6.11500000000000    -2.77810000000000     0.57790000000000
  6     4.16010000000000    -7.20550000000000     5.20090000000000
  6     8.32020000000000     0.00000000000000     1.73360000000000
  7     0.68720000000000     1.19020000000000     5.20090000000000
  7     4.12460000000000     7.14400000000000     1.73360000000000
  7     0.68720000000000    -1.19020000000000     5.20090000000000
  7     1.37430000000000     0.00000000000000     1.73360000000000
  7     3.43740000000000     2.77810000000000     2.88940000000000
  7     4.12460000000000     3.96820000000000     6.35660000000000
  7     4.12460000000000     1.58790000000000     6.35660000000000
  7     5.49890000000000     3.96820000000000     2.88940000000000
  7     5.49890000000000     1.58790000000000     2.88940000000000
  7     6.18600000000000     2.77810000000000     6.35660000000000
  7     3.43740000000000    -2.77810000000000     0.57790000000000
  7     4.12460000000000    -1.58790000000000     4.04510000000000
  7     4.12460000000000    -3.96820000000000     4.04510000000000
  7     5.49890000000000    -1.58790000000000     0.57790000000000
  7     5.49890000000000    -3.96820000000000     0.57790000000000
  7     6.18600000000000    -2.77810000000000     4.04510000000000
  7     4.12460000000000    -7.14400000000000     1.73360000000000
  7     8.24920000000000     0.00000000000000     5.20090000000000
