CRYSTAL
PRIMVEC
 4.67486630000000 -8.09710600000000 0.00000000000000
 4.67486630000000 8.09710600000000 0.00000000000000
 0.00000000000000 0.00000000000000 8.00425030000000
PRIMCOORD
 72 1
  1     1.41990000000000     1.86860000000000     4.22410000000000
  1     3.76660000000000     5.93310000000000     0.22200000000000
  1     0.81710000000000     1.07690000000000     2.69460000000000
  1     4.15080000000000     6.85100000000000     6.69670000000000
  1     2.34660000000000     2.99440000000000     1.55600000000000
  1     3.25490000000000     4.56760000000000     5.55820000000000
  1     1.34120000000000     0.16920000000000     6.69670000000000
  1     5.19890000000000     6.85100000000000     2.69460000000000
  1     3.33360000000000     2.86820000000000     0.02650000000000
  1     3.85770000000000     3.77600000000000     4.02860000000000
  1     2.32820000000000     0.29540000000000     0.22200000000000
  1     5.58320000000000     5.93310000000000     4.22410000000000
  1     3.76660000000000     0.53500000000000     5.55820000000000
  1     6.09480000000000     4.56760000000000     1.55600000000000
  1     4.15080000000000     1.45290000000000     4.02860000000000
  1     5.49200000000000     3.77600000000000     0.02650000000000
  1     2.34660000000000    -2.40360000000000     6.89220000000000
  1     3.25490000000000    -0.83040000000000     2.89010000000000
  1     5.19890000000000     1.45290000000000     0.02650000000000
  1     6.01610000000000     2.86820000000000     4.02860000000000
  1     3.33360000000000    -2.52980000000000     5.36270000000000
  1     3.85770000000000    -1.62210000000000     1.36060000000000
  1     5.58320000000000     0.53500000000000     1.55600000000000
  1     7.00310000000000     2.99440000000000     5.55820000000000
  1     3.76660000000000    -4.86300000000000     2.89010000000000
  1     6.09480000000000    -0.83040000000000     6.89220000000000
  1     4.15080000000000    -3.94520000000000     1.36060000000000
  1     5.49200000000000    -1.62210000000000     5.36270000000000
  1     7.02150000000000     0.29540000000000     4.22410000000000
  1     7.92980000000000     1.86860000000000     0.22200000000000
  1     5.19890000000000    -3.94520000000000     5.36270000000000
  1     6.01610000000000    -2.52980000000000     1.36060000000000
  1     8.00850000000000     0.16920000000000     2.69460000000000
  1     8.53260000000000     1.07690000000000     6.69670000000000
  1     5.58320000000000    -4.86300000000000     6.89220000000000
  1     7.00310000000000    -2.40360000000000     2.89010000000000
  6     0.81020000000000     1.06420000000000     3.80180000000000
  6     4.15830000000000     6.86340000000000     7.80390000000000
  6     1.32670000000000     0.16950000000000     7.80390000000000
  6     5.19140000000000     6.86340000000000     3.80180000000000
  6     3.34810000000000     2.86860000000000     1.13370000000000
  6     3.86470000000000     3.76330000000000     5.13580000000000
  6     4.15830000000000     1.46530000000000     5.13580000000000
  6     5.48500000000000     3.76330000000000     1.13370000000000
  6     5.19140000000000     1.46530000000000     1.13370000000000
  6     6.00160000000000     2.86860000000000     5.13580000000000
  6     3.34810000000000    -2.52950000000000     6.46990000000000
  6     3.86470000000000    -1.63480000000000     2.46780000000000
  6     4.15830000000000    -3.93280000000000     2.46780000000000
  6     5.48510000000000    -1.63480000000000     6.46990000000000
  6     5.19140000000000    -3.93280000000000     6.46990000000000
  6     6.00160000000000    -2.52950000000000     2.46780000000000
  6     8.02300000000000     0.16950000000000     3.80180000000000
  6     8.53960000000000     1.06420000000000     7.80390000000000
  8     0.81720000000000    -1.07480000000000     0.26930000000000
  8     1.33940000000000    -0.17040000000000     4.27140000000000
  8     3.33540000000000     2.52870000000000     5.60540000000000
  8     4.15270000000000     3.94420000000000     1.60330000000000
  8     3.85760000000000     1.62420000000000     1.60330000000000
  8     5.19710000000000     3.94420000000000     5.60550000000000
  8     5.49210000000000     1.62420000000000     5.60540000000000
  8     6.01430000000000     2.52870000000000     1.60330000000000
  8     3.33540000000000    -2.86940000000000     2.93740000000000
  8     4.15270000000000    -1.45390000000000     6.93950000000000
  8     3.85760000000000    -3.77380000000000     6.93950000000000
  8     5.19710000000000    -1.45390000000000     2.93740000000000
  8     5.49210000000000    -3.77380000000000     2.93740000000000
  8     6.01430000000000    -2.86940000000000     6.93950000000000
  8     4.15270000000000    -6.85190000000000     4.27140000000000
  8     8.01030000000000    -0.17040000000000     0.26930000000000
  8     5.19710000000000    -6.85190000000000     0.26930000000000
  8     8.53250000000000    -1.07480000000000     4.27140000000000
