CRYSTAL
PRIMVEC
 11.89546930000000 0.00000000000000 -0.08343960000000
 0.00000000000000 12.26642000000000 0.00000000000000
 -1.89233020000000 0.00000000000000 3.11204480000000
PRIMCOORD
 48 1
  1     5.02830000000000     1.84850000000000     0.29520000000000
  1    -0.97290000000000     7.98170000000000     2.77510000000000
  1     4.97490000000000    10.41790000000000     2.73340000000000
  1    10.97600000000000     4.28470000000000     0.25350000000000
  1     3.55410000000000     3.64780000000000     0.08290000000000
  1     0.50130000000000     9.78100000000000     2.98740000000000
  1     6.44910000000000     8.61870000000000     2.94570000000000
  1     9.50180000000000     2.48540000000000     0.04120000000000
  1    -1.62630000000000     1.17840000000000     3.05640000000000
  1     5.68170000000000     7.31160000000000     0.01400000000000
  1    11.62940000000000    11.08800000000000    -0.02780000000000
  1     4.32140000000000     4.95480000000000     3.01460000000000
  1     4.13600000000000    11.73530000000000     0.29500000000000
  1    -0.08060000000000     5.60210000000000     2.77540000000000
  1     5.86710000000000     0.53110000000000     2.73360000000000
  1    10.08380000000000     6.66430000000000     0.25320000000000
  6     1.77350000000000     2.58250000000000     0.02430000000000
  6     2.28190000000000     8.71570000000000     3.04600000000000
  6     8.22970000000000     9.68390000000000     3.00430000000000
  6     7.72120000000000     3.55070000000000    -0.01740000000000
  6     2.06570000000000     0.13490000000000     0.10380000000000
  6     1.98970000000000     6.26810000000000     2.96660000000000
  6     7.93740000000000    12.13150000000000     2.92480000000000
  6     8.01340000000000     5.99830000000000     0.06200000000000
  6     3.48060000000000     0.33470000000000     0.23730000000000
  6     0.57480000000000     6.46790000000000     2.83310000000000
  6     6.52250000000000    11.93180000000000     2.79140000000000
  6     9.42840000000000     5.79860000000000     0.19550000000000
  6     3.96570000000000     1.61210000000000     0.23600000000000
  6     0.08970000000000     7.74530000000000     2.83440000000000
  6     6.03740000000000    10.65430000000000     2.79270000000000
  6     9.91340000000000     4.52110000000000     0.19420000000000
  7     3.14480000000000     2.69310000000000     0.13170000000000
  7     0.91060000000000     8.82630000000000     2.93860000000000
  7     6.85840000000000     9.57340000000000     2.89690000000000
  7     9.09250000000000     3.44020000000000     0.09000000000000
  7     1.29900000000000     1.28430000000000     0.01530000000000
  7     2.75640000000000     7.41750000000000     3.05510000000000
  7     8.70410000000000    10.98210000000000     3.01330000000000
  7     7.24670000000000     4.84890000000000    -0.02640000000000
  8    -0.86870000000000     3.55720000000000     3.05960000000000
  8     4.92410000000000     9.69040000000000     0.01080000000000
  8    10.87190000000000     8.70930000000000    -0.03100000000000
  8     5.07900000000000     2.57610000000000     3.01790000000000
  8     1.48900000000000    11.28230000000000     0.05840000000000
  8     2.56640000000000     5.14910000000000     3.01190000000000
  8     8.51410000000000     0.98420000000000     2.97020000000000
  8     7.43670000000000     7.11740000000000     0.01670000000000
