CRYSTAL
PRIMVEC
 5.55890860000000 0.00000000000000 0.00000000000000
 0.00000000000000 5.55890860000000 0.00000000000000
 0.00000000000000 0.00000000000000 4.68304860000000
PRIMCOORD
 16 1
  1     1.44630000000000     4.22580000000000     1.33740000000000
  1     4.22580000000000     4.11260000000000     3.34570000000000
  1     4.11260000000000     1.33310000000000     1.33740000000000
  1     1.33310000000000     1.44630000000000     3.34570000000000
  1     0.80580000000000     3.58530000000000     4.51570000000000
  1     3.58530000000000     4.75310000000000     0.16730000000000
  1     4.75310000000000     1.97360000000000     4.51570000000000
  1     1.97360000000000     0.80580000000000     0.16730000000000
  6     0.00000000000000     2.77950000000000     1.54760000000000
  6     2.77950000000000     0.00000000000000     3.13550000000000
  7     0.81550000000000     3.59490000000000     0.84830000000000
  7     3.59490000000000     4.74340000000000     3.83470000000000
  7     4.74340000000000     1.96400000000000     0.84830000000000
  7     1.96400000000000     0.81550000000000     3.83470000000000
  8     0.00000000000000     2.77950000000000     2.82040000000000
  8     2.77950000000000     0.00000000000000     1.86270000000000
